HHT
  PyMOL2.3          3D                             0

 12 12  0  0  0  0  0  0  0  0999 V2000
   -0.7030   -7.8450  -26.4180 C   0  0  0  0  0  0  0  0  0  0  0  0
   -0.5090   -7.2420  -25.1910 C   0  0  0  0  0  0  0  0  0  0  0  0
   -0.5670   -7.9810  -24.0310 C   0  0  0  0  0  0  0  0  0  0  0  0
   -0.7830   -9.3430  -24.0590 C   0  0  0  0  0  0  0  0  0  0  0  0
   -0.7780  -10.1580  -22.8130 C   0  0  0  0  0  0  0  0  0  0  0  0
   -2.0880  -10.4300  -22.1220 C   0  0  0  0  0  0  0  0  0  0  0  0
   -1.0040   -9.2070  -26.4780 C   0  0  0  0  0  0  0  0  0  0  0  0
   -1.4110  -11.9670  -26.5110 C   0  0  0  0  0  0  0  0  0  0  0  0
   -1.2880  -11.2850  -25.2800 O   0  0  0  0  0  0  0  0  0  0  0  0
   -1.0080   -9.9600  -25.3270 C   0  0  0  0  0  0  0  0  0  0  0  0
   -2.0600  -11.2260  -21.1660 O   0  0  0  0  0  0  0  0  0  0  0  0
   -3.1080   -9.8300  -22.5030 O   0  0  0  0  0  0  0  0  0  0  0  0
  1  2  2  0  0  0  0
  1  7  1  0  0  0  0
  2  3  1  0  0  0  0
  3  4  2  0  0  0  0
  4  5  1  0  0  0  0
  4 10  1  0  0  0  0
  5  6  1  0  0  0  0
  6 11  1  0  0  0  0
  6 12  2  0  0  0  0
  7 10  2  0  0  0  0
  8  9  1  0  0  0  0
  9 10  1  0  0  0  0
M  END
$$$$
